{"data":"q3IWXPuXnPtdVgD0uhJ1Gc5aELfQb99LIR5rbBBFe8uLdFKYwJMxF0kkQA4NF5GUsHz7X8jZFiDi2XsPkhIsbXnmdTkioHP1ZTqZXDwY+hSyWsx4dmV+zPV1tAfvR+N3iHXiG3de76uh945b7fPKvwo+syOdnAcXSJp3ZfCP3KJTA5Fpes5308BJ6pMiZfVsvkVJRWBiKUmZKJ1ruS5DF6xIA6YG4UVO/Mk60Pb2xDzqn8GFJSGjzNu73mols3YRs80RZBsNoFbcw3FSfFr7DzKYyTecUMJxJGNIqHXFIklAE0+7qZ66bOWRfOBjaezCnWk+mPVqRrBf+vTInrgVO7eRL8jO1DoQN/RaSxjh7xtxqvQBK93ughr74fjizY7Lt+PUf+d+O0P/sGL6Cs9ULz1fuKANoTj2iVt9G635fmwjeI77QXyOTpzgZx5Ahn/cYRUdG2xFd3jBus0NW6qYBTu9nwE2oLXGEtM8ECByxqpK92ULEchVOQtY+sRDp2RjCjgHikcVZGaYRmJUJfi44MRy7SAKPS1NIuj/p+LQKFyMcPSQQb8y5ooZt9acmL66DxcPHb2GRdJ33jumyUjWiy21DZy032KP/+uvXk/vGPp94RdZbYPpUu43q294SafhzI0WMTOWyQ6S6Pf8x3NjWRSB6wfeZH3aU+dA9Sp0xE0XVtnf5v6ue9c+RF/AsLQux+sqn64RiuRxFR8rVmT/sF6OzMTvpVUBxM6dkYjovod1d3pqMVvw3wrtB1Dh3RbzQRYVBgMw/Xin8anI7nk+3V/blECIX4Vn0BI4nPDVBQxl3F5CkrNlwvrEoKJIdsDoBRdmFcKIWecI9VTLdDx3JbcHIHsaNIsL4pemPQtJOQNI/fQ19RSeRwC1X53IIqzjJKqqqB3MyHnMU66ZLV+17zOFQ6PqTarmQUJ7sjjjdYg8GaTyvqkURQuYYCqnr7QD+bRaUNtWEJdhugNqPDd8cK/72o9R6FGe0mpQ1dTcR6COewNGoKURZFKwWF38QFG0/kEcis/2XVoFaxgT17gIHvAuNnphFqIg0nfJJGVv1BwoGrfGA93+4i659Kl5eV3Q4A3kIhH/9iF4gUj63vlgbDxXob7G+7vz7nGPDmmVQR3Ib1Vsu4rxuapkEtQruDFWQ7zPZkP0fsAI5wTD63o2k2bssae3vgtm1ZD2qu3XF9499HYeOkcRwN0+Fd7/p9IPlMdQf2/Zv2CPFpfbyjMyfT6nyvNOXni1ZV3KnC+qnZOM/SJSaM/v6uuUSJHeUyTB3ty8ru842Xgx1008EKEgxQZX9OA/OEeXbD7ffqbvSssPuloMsDBHkSfi+0/hQWBpmD+os8/sbT9RxZeDpqUxLOLN0GklxxlEz09sWluBV+2aRw+GxbO519pHJxFIbRTRH+eJs1k8sUkO7PUgU6JIPWgdAuyhPYbwcna4ZgcsnnlDIFOo630PCX9UUmlqq8PzeEiizpZeA28FGLyAe3Sq2WnUsrOWEFkM5pg2hjyx2lr5ZQV6+OJh+8PziaRXWk1XKMatSaa/DGi2lA/1nO5NeVv+8xj2/q0WT1FmKeSrgYe8exqkRCOmD3k9TS0DNZVLZCt0hDORp/hq430jX9AarzYIL69FBEueTX2jat4PyrJ/Y4Fs+tO48uuqvHxNBqg2Z7LnlRksfXy4HurW+1SNMmTHodRP3BvDTb7IjjFN5Q2zlxbrOEgGj0I+V0pz5quUvxUJ2gdNzulkU9XjeObk9dklnezC4aD2WUvOQi1JGsLQMMI3nyHg0TNkkxWXcdAQO4gwAOq8AwcelAKwAXLWEpeR8mKMpfE8f+TDn5ON3Bs1CiPQ0hDHrbdWcnJxj3olGhIYcV592uOgw5INniSYKFLJicsiVvsoElmjGTlUpHkxHOJwx9oijzjjAa3MYZL5fGCLnjXO6BUk7sHPbs9OdP7VVCoMQF0hcBmijcqtkC9pOMnbws2OE42oiyy7cFfazj7zY4ZJcQhUYK1uxNl73pp5QMmnmSh4oNdADV9ZBIl5c3Sg07c9CGMT1pTZ5fybSVpZzllPP1+XmzRjJMOkiId1eJHUtcTp6F6NlOWCD9Xxe411/2oueIx++MT3DSXpc4u9eMHNZwvo9GOaBjNBM0xn8cEt5uMyIKpJ1Kcupo/X0CWkjsZM/iXFPfnPsG5IXijniLxdm8bAM6TAjNm7CCTySdfMKDv0hmkhyxq5eg4JLP/WSxewQJbi9WJDdnppnjdKbppu8El1ruhC8I0D8bP7uqUqxhVAD6C3nP6ZHz4e1/N0UlaNnoB1pRMeOxmgzPObiSA+99at1YarOVA5Pi7MFmNna7YhrE7YK7/eIOyHjvnaAp1Jpq+VvKFJPIbFPqizY8PNVz50F2r/Iykv4Mg+Fnu+wA4WpClssAGIJfCmCQsVqP65DJD0MIEIeAYRQRTPROvPHpITTP/+sDZWp+cx7+uRPZPClxfaQ31630qwc/Un/r5fuo8Vmak24gQP2jR7LsRzJ59unUgWxSUVs0bDp3QBhOoYDJ3xbW6lK0NuHqN0032aQT/PkL7YVRRJFDnakc6u4NWkKARx23BKfITya5SXDwKo1/jyr3Na1o5Qf2S2eM+5zC+RXwjwIBTMtw0cc3JMVHE0vuRlpA3q+Djlg+s4/9KaQrdQRtcevJNl5+yBrM/VVY8RykMWxo9BeklOQtIV89WRNl64yp595oVL7NbfH2upc1DMe+8nXC+1kamBavqWUIUgzRUt45Z2TFDlxQESY9LyrqNpfGQV359wEw2rPv4wqpEaO4OOzIu86DYfO3IaR94E9oMuzzYcDjdDRD2/XqsHfqQGscDX98dlpcyhAhyAeMwig6o4iZXmzSYti1NO0aZySEw3HmuCaYxRtUan6u5sqfOMow7ctV+e7lfxgRW5j+M+RkHmKOnmjBfy8Grtzj4f2eARM9bG7pr7AuEpuHCeh7kV3YUCUo46FulphJxrRzBcsvPTmx6ki2D23d1Wr4bbOF5ScfcYoGiPF/xohS8I/QkPpvHlPMxdDd66jP48JmPuXDSzNUIvgc6zXAgjdENUb0nXuwpLzCnN+RU+cEKBBefoTK3HnWaWc1bxDZqTHQ7tEIatzO6rJ8MmA0ODO3otaXe48UAONOpy5d2oDoX8k4WoDPxfldaYwKB+O2IyPPQH+xK5fOt8WyZDGGqmHCPuuHI6m5UdGvR60jxhgrNHugs0HFMC29OFoSd17jgibWQ9X0msv369jqDb6jou0dS9JFv+9K7mG/5mOCOZXOZMkHtEY61psDGICmgEBtRc0TnaUnD43NRBgHeXfeMZ/Mr9Cy68+kiDYBhP3iuXtCw3eQqAfH50+BXPqE7j1ZninJHlqyT7JWmE5XYei6zutWxXi/5wBeoQeqg/n2w99IF7Uqly8nd/g5gMmzc1w11Kj+1MS99keX19rFEhAanT9Sw2rgiTXFtlEmFzkp7oAxRR6uDBxlK4Ijf0nsBbTraZ30zuBQnHyX9TZfjoLbRXdfVEo99pmwUsifyc","timestamp":"1784029851099"}